Circuit: * C:\Users\Marcelo\Desktop\audioDSP\AudioDSP-v1.0\Simulations\Gate.asc

Direct Newton iteration for .op point succeeded.

Date: Thu Feb 09 20:03:54 2023
Total elapsed time: 0.031 seconds.

tnom = 27
temp = 27
method = modified trap
totiter = 7772
traniter = 7755
tranpoints = 3080
accept = 2702
rejected = 378
matrix size = 19
fillins = 8
solver = Normal
Matrix Compiler1: 1.24 KB object code size  0.2/0.1/[0.1]
Matrix Compiler2: off  [0.1]/0.2/0.3

